2
1
.ac dec 2 100 150
0
1
.ac dec 2 100 150
0
